*simple r&d nand for tran sim
vin1 1 0 pulse 0 1.8 2ns 2ns 2ns 15ns 35ns
vin2 2 0 pulse 0 1.8 10ns 2ns 2ns 15ns 35ns
r1 4 3 0.3m
d1 2 3
d2 1 3
vdd 4 0 1.8
.tran 10p 60n
.print tran v(3) v(1) v(2)
.END
