*simple r&d and for tran sim
vin1 1 0 pulse 0 3 2ns 2ns 2ns 15ns 35ns
vin2 2 0 pulse 0 3 10ns 2ns 2ns 15ns 35ns
r1 4 3 1m
d1 3 1
d2 3 2
vdd 4 0 10
.tran 100p 60n
.print tran v(3) v(1) v(2)
.END
