*low-pass filter
R1 1 2 1k
c1 2 0 4.7u
vs 1 0 dc 2 ac 1
.ac dec 10 1 100k
.print ac vm(2) vp(2)
.end
