*simple inv for tran sim & dc sweep
vin 1 0 pulse 0 1.8 2ns 2ns 2ns 15ns 35ns
vcc 3 0 1.8
mn1 2 1 0 0 nmos w=2u l=1u
mp1 2 1 3 3 pmos w=4u l=1u
mn2 4 2 0 0 nmos w=2u l=1u
mp2 4 2 3 3 pmos w=4u l=1u
c1 4 0 0.1f
.tran 0.01ns 80ns
.dc vin 0 1.8 0.02
.print dc V(2)
.print tran v(1) v(2) v(4)
.END
