* NAND
va 1 0 pulse 0.5 1.8 1ns 100ps 100ps 4ns 8ns
vb 2 0 pulse 0.5 1.8 0ns 100ps 100ps 4ns 8ns
vdd 3 0 1.8
c1 5 0 0.1f
c2 4 0 0.1f
mn1 4 1 5 0 nmos w=2u l=1u
mn2 5 2 0 0 nmos w=2u l=1u
mp1 4 1 3 3 pmos w=2u l=1u
mp2 4 2 3 3 pmos w=2u l=1u
.tran 10ps 16ns
.print tran v(1) v(2) v(4)
.END
