* SERIES CIRCUIT (title)
VS 1  0  51
R1 1 2 12M
R2 2 3 22MEG
R3 3 0 33DB
.DC VS 6 6 1
.PRINT DC V(2,3) V(2) I(R2)
.END
