* RLC CIRCUIT
VS 1  0  2 ac 2 sin(0 2.5 1meg)
R1 1 2 10k
c1 2 0 1p
.tran 1ns  50n
.END
