*simple nmos for dc sweep
vin 1 0 1.5
vds 2 0
mn1 2 1 0 0 nmos w=2u l=1u
.dc vds 0 2 0.02 vin 0.5 1.1 0.1
.print dc I(vds)
.END