*simple diode CIRCUIT
vs 1 0 5
r1 1 2 5
r2 2 0 5
vt 1 0
.dc vs 5 10 1
.print dc i(vt)
.END
