*simple CIRCUIT for dc sweep
vs 1 0 5
r1 1 2 5
r2 2 3 5
r3 3 0 5
.dc vs 5 15 1
.print dc I(vs)
.END
